name = dH MODFLOW Module
description = Adds MODFLOW Layer File Support to dH
core = 7.x
php = 5.3.0

; should only need dh, dh can provide all other dependencies
dependencies[] = dh

files[] = dh_modflow.admin.inc
;files[] = views/dh_modflow.views_default.inc
;files[] = feeds/dh_modflow.feeds_importer.default.inc

version = "7.x-1.0"